* NGSPICE file created from wb_bridge_2way.ext - technology: sky130A

* Black-box entry subcircuit for sky130_fd_sc_hd__decap_12 abstract view
.subckt sky130_fd_sc_hd__decap_12 VGND VNB VPB VPWR
.ends

* Black-box entry subcircuit for sky130_fd_sc_hd__fill_2 abstract view
.subckt sky130_fd_sc_hd__fill_2 VGND VNB VPB VPWR
.ends

* Black-box entry subcircuit for sky130_fd_sc_hd__decap_4 abstract view
.subckt sky130_fd_sc_hd__decap_4 VGND VNB VPB VPWR
.ends

* Black-box entry subcircuit for sky130_fd_sc_hd__fill_1 abstract view
.subckt sky130_fd_sc_hd__fill_1 VGND VNB VPB VPWR
.ends

* Black-box entry subcircuit for sky130_fd_sc_hd__decap_8 abstract view
.subckt sky130_fd_sc_hd__decap_8 VGND VNB VPB VPWR
.ends

* Black-box entry subcircuit for sky130_fd_sc_hd__buf_2 abstract view
.subckt sky130_fd_sc_hd__buf_2 A VGND VNB VPB VPWR X
.ends

* Black-box entry subcircuit for sky130_fd_sc_hd__and2_1 abstract view
.subckt sky130_fd_sc_hd__and2_1 A B VGND VNB VPB VPWR X
.ends

* Black-box entry subcircuit for sky130_fd_sc_hd__a22o_2 abstract view
.subckt sky130_fd_sc_hd__a22o_2 A1 A2 B1 B2 VGND VNB VPB VPWR X
.ends

* Black-box entry subcircuit for sky130_fd_sc_hd__decap_6 abstract view
.subckt sky130_fd_sc_hd__decap_6 VGND VNB VPB VPWR
.ends

* Black-box entry subcircuit for sky130_fd_sc_hd__dlymetal6s2s_1 abstract view
.subckt sky130_fd_sc_hd__dlymetal6s2s_1 A VGND VNB VPB VPWR X
.ends

* Black-box entry subcircuit for sky130_fd_sc_hd__clkbuf_1 abstract view
.subckt sky130_fd_sc_hd__clkbuf_1 A VGND VNB VPB VPWR X
.ends

* Black-box entry subcircuit for sky130_fd_sc_hd__conb_1 abstract view
.subckt sky130_fd_sc_hd__conb_1 VGND VNB VPB VPWR HI LO
.ends

* Black-box entry subcircuit for sky130_fd_sc_hd__tapvpwrvgnd_1 abstract view
.subckt sky130_fd_sc_hd__tapvpwrvgnd_1 VGND VPWR
.ends

* Black-box entry subcircuit for sky130_fd_sc_hd__decap_3 abstract view
.subckt sky130_fd_sc_hd__decap_3 VGND VNB VPB VPWR
.ends

* Black-box entry subcircuit for sky130_fd_sc_hd__clkbuf_2 abstract view
.subckt sky130_fd_sc_hd__clkbuf_2 A VGND VNB VPB VPWR X
.ends

* Black-box entry subcircuit for sky130_fd_sc_hd__buf_4 abstract view
.subckt sky130_fd_sc_hd__buf_4 A VGND VNB VPB VPWR X
.ends

* Black-box entry subcircuit for sky130_fd_sc_hd__clkbuf_4 abstract view
.subckt sky130_fd_sc_hd__clkbuf_4 A VGND VNB VPB VPWR X
.ends

* Black-box entry subcircuit for sky130_fd_sc_hd__and4_1 abstract view
.subckt sky130_fd_sc_hd__and4_1 A B C D VGND VNB VPB VPWR X
.ends

* Black-box entry subcircuit for sky130_fd_sc_hd__and3_1 abstract view
.subckt sky130_fd_sc_hd__and3_1 A B C VGND VNB VPB VPWR X
.ends

* Black-box entry subcircuit for sky130_fd_sc_hd__or3_1 abstract view
.subckt sky130_fd_sc_hd__or3_1 A B C VGND VNB VPB VPWR X
.ends

* Black-box entry subcircuit for sky130_fd_sc_hd__or4_1 abstract view
.subckt sky130_fd_sc_hd__or4_1 A B C D VGND VNB VPB VPWR X
.ends

* Black-box entry subcircuit for sky130_fd_sc_hd__or4bb_1 abstract view
.subckt sky130_fd_sc_hd__or4bb_1 A B C_N D_N VGND VNB VPB VPWR X
.ends

* Black-box entry subcircuit for sky130_fd_sc_hd__a22o_1 abstract view
.subckt sky130_fd_sc_hd__a22o_1 A1 A2 B1 B2 VGND VNB VPB VPWR X
.ends

* Black-box entry subcircuit for sky130_fd_sc_hd__buf_6 abstract view
.subckt sky130_fd_sc_hd__buf_6 A VGND VNB VPB VPWR X
.ends

* Black-box entry subcircuit for sky130_fd_sc_hd__and3b_1 abstract view
.subckt sky130_fd_sc_hd__and3b_1 A_N B C VGND VNB VPB VPWR X
.ends

* Black-box entry subcircuit for sky130_fd_sc_hd__a21oi_4 abstract view
.subckt sky130_fd_sc_hd__a21oi_4 A1 A2 B1 VGND VNB VPB VPWR Y
.ends

* Black-box entry subcircuit for sky130_fd_sc_hd__diode_2 abstract view
.subckt sky130_fd_sc_hd__diode_2 DIODE VGND VNB VPB VPWR
.ends

.subckt wb_bridge_2way vccd1 vssd1 wb_clk_i wb_rst_i wbm_a_ack_i wbm_a_adr_o[0] wbm_a_adr_o[10]
+ wbm_a_adr_o[11] wbm_a_adr_o[12] wbm_a_adr_o[13] wbm_a_adr_o[14] wbm_a_adr_o[15]
+ wbm_a_adr_o[16] wbm_a_adr_o[17] wbm_a_adr_o[18] wbm_a_adr_o[19] wbm_a_adr_o[1] wbm_a_adr_o[20]
+ wbm_a_adr_o[21] wbm_a_adr_o[22] wbm_a_adr_o[23] wbm_a_adr_o[24] wbm_a_adr_o[25]
+ wbm_a_adr_o[26] wbm_a_adr_o[27] wbm_a_adr_o[28] wbm_a_adr_o[29] wbm_a_adr_o[2] wbm_a_adr_o[30]
+ wbm_a_adr_o[31] wbm_a_adr_o[3] wbm_a_adr_o[4] wbm_a_adr_o[5] wbm_a_adr_o[6] wbm_a_adr_o[7]
+ wbm_a_adr_o[8] wbm_a_adr_o[9] wbm_a_cyc_o wbm_a_dat_i[0] wbm_a_dat_i[10] wbm_a_dat_i[11]
+ wbm_a_dat_i[12] wbm_a_dat_i[13] wbm_a_dat_i[14] wbm_a_dat_i[15] wbm_a_dat_i[16]
+ wbm_a_dat_i[17] wbm_a_dat_i[18] wbm_a_dat_i[19] wbm_a_dat_i[1] wbm_a_dat_i[20] wbm_a_dat_i[21]
+ wbm_a_dat_i[22] wbm_a_dat_i[23] wbm_a_dat_i[24] wbm_a_dat_i[25] wbm_a_dat_i[26]
+ wbm_a_dat_i[27] wbm_a_dat_i[28] wbm_a_dat_i[29] wbm_a_dat_i[2] wbm_a_dat_i[30] wbm_a_dat_i[31]
+ wbm_a_dat_i[3] wbm_a_dat_i[4] wbm_a_dat_i[5] wbm_a_dat_i[6] wbm_a_dat_i[7] wbm_a_dat_i[8]
+ wbm_a_dat_i[9] wbm_a_dat_o[0] wbm_a_dat_o[10] wbm_a_dat_o[11] wbm_a_dat_o[12] wbm_a_dat_o[13]
+ wbm_a_dat_o[14] wbm_a_dat_o[15] wbm_a_dat_o[16] wbm_a_dat_o[17] wbm_a_dat_o[18]
+ wbm_a_dat_o[19] wbm_a_dat_o[1] wbm_a_dat_o[20] wbm_a_dat_o[21] wbm_a_dat_o[22] wbm_a_dat_o[23]
+ wbm_a_dat_o[24] wbm_a_dat_o[25] wbm_a_dat_o[26] wbm_a_dat_o[27] wbm_a_dat_o[28]
+ wbm_a_dat_o[29] wbm_a_dat_o[2] wbm_a_dat_o[30] wbm_a_dat_o[31] wbm_a_dat_o[3] wbm_a_dat_o[4]
+ wbm_a_dat_o[5] wbm_a_dat_o[6] wbm_a_dat_o[7] wbm_a_dat_o[8] wbm_a_dat_o[9] wbm_a_sel_o[0]
+ wbm_a_sel_o[1] wbm_a_sel_o[2] wbm_a_sel_o[3] wbm_a_stb_o wbm_a_we_o wbm_b_ack_i
+ wbm_b_adr_o[0] wbm_b_adr_o[10] wbm_b_adr_o[1] wbm_b_adr_o[2] wbm_b_adr_o[3] wbm_b_adr_o[4]
+ wbm_b_adr_o[5] wbm_b_adr_o[6] wbm_b_adr_o[7] wbm_b_adr_o[8] wbm_b_adr_o[9] wbm_b_cyc_o
+ wbm_b_dat_i[0] wbm_b_dat_i[10] wbm_b_dat_i[11] wbm_b_dat_i[12] wbm_b_dat_i[13] wbm_b_dat_i[14]
+ wbm_b_dat_i[15] wbm_b_dat_i[16] wbm_b_dat_i[17] wbm_b_dat_i[18] wbm_b_dat_i[19]
+ wbm_b_dat_i[1] wbm_b_dat_i[20] wbm_b_dat_i[21] wbm_b_dat_i[22] wbm_b_dat_i[23] wbm_b_dat_i[24]
+ wbm_b_dat_i[25] wbm_b_dat_i[26] wbm_b_dat_i[27] wbm_b_dat_i[28] wbm_b_dat_i[29]
+ wbm_b_dat_i[2] wbm_b_dat_i[30] wbm_b_dat_i[31] wbm_b_dat_i[3] wbm_b_dat_i[4] wbm_b_dat_i[5]
+ wbm_b_dat_i[6] wbm_b_dat_i[7] wbm_b_dat_i[8] wbm_b_dat_i[9] wbm_b_dat_o[0] wbm_b_dat_o[10]
+ wbm_b_dat_o[11] wbm_b_dat_o[12] wbm_b_dat_o[13] wbm_b_dat_o[14] wbm_b_dat_o[15]
+ wbm_b_dat_o[16] wbm_b_dat_o[17] wbm_b_dat_o[18] wbm_b_dat_o[19] wbm_b_dat_o[1] wbm_b_dat_o[20]
+ wbm_b_dat_o[21] wbm_b_dat_o[22] wbm_b_dat_o[23] wbm_b_dat_o[24] wbm_b_dat_o[25]
+ wbm_b_dat_o[26] wbm_b_dat_o[27] wbm_b_dat_o[28] wbm_b_dat_o[29] wbm_b_dat_o[2] wbm_b_dat_o[30]
+ wbm_b_dat_o[31] wbm_b_dat_o[3] wbm_b_dat_o[4] wbm_b_dat_o[5] wbm_b_dat_o[6] wbm_b_dat_o[7]
+ wbm_b_dat_o[8] wbm_b_dat_o[9] wbm_b_sel_o[0] wbm_b_sel_o[1] wbm_b_sel_o[2] wbm_b_sel_o[3]
+ wbm_b_stb_o wbm_b_we_o wbs_ack_o wbs_adr_i[0] wbs_adr_i[10] wbs_adr_i[11] wbs_adr_i[12]
+ wbs_adr_i[13] wbs_adr_i[14] wbs_adr_i[15] wbs_adr_i[16] wbs_adr_i[17] wbs_adr_i[18]
+ wbs_adr_i[19] wbs_adr_i[1] wbs_adr_i[20] wbs_adr_i[21] wbs_adr_i[22] wbs_adr_i[23]
+ wbs_adr_i[24] wbs_adr_i[25] wbs_adr_i[26] wbs_adr_i[27] wbs_adr_i[28] wbs_adr_i[29]
+ wbs_adr_i[2] wbs_adr_i[30] wbs_adr_i[31] wbs_adr_i[3] wbs_adr_i[4] wbs_adr_i[5]
+ wbs_adr_i[6] wbs_adr_i[7] wbs_adr_i[8] wbs_adr_i[9] wbs_cyc_i wbs_dat_i[0] wbs_dat_i[10]
+ wbs_dat_i[11] wbs_dat_i[12] wbs_dat_i[13] wbs_dat_i[14] wbs_dat_i[15] wbs_dat_i[16]
+ wbs_dat_i[17] wbs_dat_i[18] wbs_dat_i[19] wbs_dat_i[1] wbs_dat_i[20] wbs_dat_i[21]
+ wbs_dat_i[22] wbs_dat_i[23] wbs_dat_i[24] wbs_dat_i[25] wbs_dat_i[26] wbs_dat_i[27]
+ wbs_dat_i[28] wbs_dat_i[29] wbs_dat_i[2] wbs_dat_i[30] wbs_dat_i[31] wbs_dat_i[3]
+ wbs_dat_i[4] wbs_dat_i[5] wbs_dat_i[6] wbs_dat_i[7] wbs_dat_i[8] wbs_dat_i[9] wbs_dat_o[0]
+ wbs_dat_o[10] wbs_dat_o[11] wbs_dat_o[12] wbs_dat_o[13] wbs_dat_o[14] wbs_dat_o[15]
+ wbs_dat_o[16] wbs_dat_o[17] wbs_dat_o[18] wbs_dat_o[19] wbs_dat_o[1] wbs_dat_o[20]
+ wbs_dat_o[21] wbs_dat_o[22] wbs_dat_o[23] wbs_dat_o[24] wbs_dat_o[25] wbs_dat_o[26]
+ wbs_dat_o[27] wbs_dat_o[28] wbs_dat_o[29] wbs_dat_o[2] wbs_dat_o[30] wbs_dat_o[31]
+ wbs_dat_o[3] wbs_dat_o[4] wbs_dat_o[5] wbs_dat_o[6] wbs_dat_o[7] wbs_dat_o[8] wbs_dat_o[9]
+ wbs_sel_i[0] wbs_sel_i[1] wbs_sel_i[2] wbs_sel_i[3] wbs_stb_i wbs_we_i
XFILLER_52_29 vssd1 vssd1 vccd1 vccd1 sky130_fd_sc_hd__decap_12
XFILLER_133_54 vssd1 vssd1 vccd1 vccd1 sky130_fd_sc_hd__fill_2
XFILLER_117_99 vssd1 vssd1 vccd1 vccd1 sky130_fd_sc_hd__decap_4
XFILLER_117_55 vssd1 vssd1 vccd1 vccd1 sky130_fd_sc_hd__fill_1
XFILLER_77_48 vssd1 vssd1 vccd1 vccd1 sky130_fd_sc_hd__decap_8
XFILLER_93_69 vssd1 vssd1 vccd1 vccd1 sky130_fd_sc_hd__decap_12
XFILLER_26_85 vssd1 vssd1 vccd1 vccd1 sky130_fd_sc_hd__decap_8
X_294_ _294_/A vssd1 vssd1 vccd1 vccd1 _294_/X sky130_fd_sc_hd__buf_2
XFILLER_103_57 vssd1 vssd1 vccd1 vccd1 sky130_fd_sc_hd__decap_12
XFILLER_12_32 vssd1 vssd1 vccd1 vccd1 sky130_fd_sc_hd__decap_12
XFILLER_128_65 vssd1 vssd1 vccd1 vccd1 sky130_fd_sc_hd__decap_12
X_277_ _277_/A _283_/B vssd1 vssd1 vccd1 vccd1 _278_/A sky130_fd_sc_hd__and2_1
Xoutput231 _109_/X vssd1 vssd1 vccd1 vccd1 wbm_b_dat_o[2] sky130_fd_sc_hd__buf_2
Xoutput220 _107_/X vssd1 vssd1 vccd1 vccd1 wbm_b_dat_o[1] sky130_fd_sc_hd__buf_2
Xoutput242 _292_/X vssd1 vssd1 vccd1 vccd1 wbm_b_sel_o[1] sky130_fd_sc_hd__buf_2
Xoutput275 _178_/X vssd1 vssd1 vccd1 vccd1 wbs_dat_o[5] sky130_fd_sc_hd__buf_2
Xoutput253 _187_/X vssd1 vssd1 vccd1 vccd1 wbs_dat_o[14] sky130_fd_sc_hd__buf_2
Xoutput264 _199_/X vssd1 vssd1 vccd1 vccd1 wbs_dat_o[24] sky130_fd_sc_hd__buf_2
X_200_ _200_/A1 _188_/X _189_/X _200_/B2 vssd1 vssd1 vccd1 vccd1 _200_/X sky130_fd_sc_hd__a22o_2
XFILLER_130_77 vssd1 vssd1 vccd1 vccd1 sky130_fd_sc_hd__decap_6
XFILLER_130_11 vssd1 vssd1 vccd1 vccd1 sky130_fd_sc_hd__decap_12
XFILLER_99_57 vssd1 vssd1 vccd1 vccd1 sky130_fd_sc_hd__decap_12
XFILLER_23_31 vssd1 vssd1 vccd1 vccd1 sky130_fd_sc_hd__decap_12
X_131_ _131_/A vssd1 vssd1 vccd1 vccd1 _131_/X sky130_fd_sc_hd__dlymetal6s2s_1
XFILLER_0_13 vssd1 vssd1 vccd1 vccd1 sky130_fd_sc_hd__decap_4
XFILLER_0_57 vssd1 vssd1 vccd1 vccd1 sky130_fd_sc_hd__decap_12
XFILLER_9_99 vssd1 vssd1 vccd1 vccd1 sky130_fd_sc_hd__decap_4
XFILLER_9_55 vssd1 vssd1 vccd1 vccd1 sky130_fd_sc_hd__fill_1
XFILLER_9_22 vssd1 vssd1 vccd1 vccd1 sky130_fd_sc_hd__decap_4
X_329_ _341_/A vssd1 vssd1 vccd1 vccd1 _329_/X sky130_fd_sc_hd__clkbuf_1
X_307__288 vssd1 vssd1 vccd1 vccd1 _307__288/HI wbm_a_adr_o[30] sky130_fd_sc_hd__conb_1
XFILLER_64_93 vssd1 vssd1 vccd1 vccd1 sky130_fd_sc_hd__fill_2
XFILLER_50_3 vssd1 vssd1 vccd1 vccd1 sky130_fd_sc_hd__decap_4
XFILLER_44_19 vssd1 vssd1 vccd1 vccd1 sky130_fd_sc_hd__decap_8
XFILLER_109_23 vssd1 vssd1 vccd1 vccd1 sky130_fd_sc_hd__decap_12
XFILLER_125_55 vssd1 vssd1 vccd1 vccd1 sky130_fd_sc_hd__fill_1
XFILLER_125_11 vssd1 vssd1 vccd1 vccd1 sky130_fd_sc_hd__decap_12
XFILLER_125_99 vssd1 vssd1 vccd1 vccd1 sky130_fd_sc_hd__decap_4
XFILLER_18_53 vssd1 vssd1 vccd1 vccd1 sky130_fd_sc_hd__decap_12
XFILLER_18_20 vssd1 vssd1 vccd1 vccd1 sky130_fd_sc_hd__decap_8
XFILLER_34_41 vssd1 vssd1 vccd1 vccd1 sky130_fd_sc_hd__decap_12
XFILLER_34_85 vssd1 vssd1 vccd1 vccd1 sky130_fd_sc_hd__decap_12
X_114_ _230_/A _132_/B vssd1 vssd1 vccd1 vccd1 _115_/A sky130_fd_sc_hd__and2_1
XFILLER_59_93 vssd1 vssd1 vccd1 vccd1 sky130_fd_sc_hd__fill_2
XFILLER_75_81 vssd1 vssd1 vccd1 vccd1 sky130_fd_sc_hd__decap_12
XFILLER_111_57 vssd1 vssd1 vccd1 vccd1 sky130_fd_sc_hd__decap_12
XFILLER_71_28 vssd1 vssd1 vccd1 vccd1 sky130_fd_sc_hd__decap_12
XFILLER_20_32 vssd1 vssd1 vccd1 vccd1 sky130_fd_sc_hd__decap_12
XFILLER_136_65 vssd1 vssd1 vccd1 vccd1 sky130_fd_sc_hd__decap_12
XFILLER_29_41 vssd1 vssd1 vccd1 vccd1 sky130_fd_sc_hd__decap_12
XTAP_304 vssd1 vccd1 sky130_fd_sc_hd__tapvpwrvgnd_1
XTAP_315 vssd1 vccd1 sky130_fd_sc_hd__tapvpwrvgnd_1
XTAP_326 vssd1 vccd1 sky130_fd_sc_hd__tapvpwrvgnd_1
XTAP_337 vssd1 vccd1 sky130_fd_sc_hd__tapvpwrvgnd_1
XTAP_348 vssd1 vccd1 sky130_fd_sc_hd__tapvpwrvgnd_1
XTAP_359 vssd1 vccd1 sky130_fd_sc_hd__tapvpwrvgnd_1
XFILLER_82_27 vssd1 vssd1 vccd1 vccd1 sky130_fd_sc_hd__fill_1
XFILLER_15_21 vssd1 vssd1 vccd1 vccd1 sky130_fd_sc_hd__decap_4
XFILLER_31_53 vssd1 vssd1 vccd1 vccd1 sky130_fd_sc_hd__decap_3
Xinput131 wbs_dat_i[9] vssd1 vssd1 vccd1 vccd1 _239_/A sky130_fd_sc_hd__dlymetal6s2s_1
Xinput120 wbs_dat_i[28] vssd1 vssd1 vccd1 vccd1 _277_/A sky130_fd_sc_hd__clkbuf_2
XFILLER_56_83 vssd1 vssd1 vccd1 vccd1 sky130_fd_sc_hd__fill_1
XPHY_170 vssd1 vssd1 vccd1 vccd1 sky130_fd_sc_hd__decap_3
XFILLER_72_93 vssd1 vssd1 vccd1 vccd1 sky130_fd_sc_hd__decap_3
XPHY_192 vssd1 vssd1 vccd1 vccd1 sky130_fd_sc_hd__decap_3
XPHY_181 vssd1 vssd1 vccd1 vccd1 sky130_fd_sc_hd__decap_3
XFILLER_77_16 vssd1 vssd1 vccd1 vccd1 sky130_fd_sc_hd__decap_4
XFILLER_133_11 vssd1 vssd1 vccd1 vccd1 sky130_fd_sc_hd__decap_4
XFILLER_93_26 vssd1 vssd1 vccd1 vccd1 sky130_fd_sc_hd__decap_12
X_293_ _293_/A _295_/B vssd1 vssd1 vccd1 vccd1 _294_/A sky130_fd_sc_hd__and2_1
XFILLER_42_85 vssd1 vssd1 vccd1 vccd1 sky130_fd_sc_hd__decap_8
XFILLER_3_46 vssd1 vssd1 vccd1 vccd1 sky130_fd_sc_hd__decap_8
XFILLER_3_57 vssd1 vssd1 vccd1 vccd1 sky130_fd_sc_hd__decap_12
XFILLER_83_81 vssd1 vssd1 vccd1 vccd1 sky130_fd_sc_hd__decap_12
XFILLER_80_3 vssd1 vssd1 vccd1 vccd1 sky130_fd_sc_hd__decap_6
XFILLER_103_69 vssd1 vssd1 vccd1 vccd1 sky130_fd_sc_hd__decap_12
XFILLER_137_7 vssd1 vssd1 vccd1 vccd1 sky130_fd_sc_hd__decap_4
XFILLER_12_44 vssd1 vssd1 vccd1 vccd1 sky130_fd_sc_hd__decap_12
XFILLER_128_99 vssd1 vssd1 vccd1 vccd1 sky130_fd_sc_hd__decap_4
XFILLER_128_77 vssd1 vssd1 vccd1 vccd1 sky130_fd_sc_hd__decap_6
XFILLER_88_26 vssd1 vssd1 vccd1 vccd1 sky130_fd_sc_hd__fill_2
XFILLER_12_99 vssd1 vssd1 vccd1 vccd1 sky130_fd_sc_hd__decap_4
XFILLER_37_41 vssd1 vssd1 vccd1 vccd1 sky130_fd_sc_hd__decap_12
X_276_ _276_/A vssd1 vssd1 vccd1 vccd1 _276_/X sky130_fd_sc_hd__clkbuf_1
XFILLER_52_7 vssd1 vssd1 vccd1 vccd1 sky130_fd_sc_hd__decap_4
Xoutput232 _166_/X vssd1 vssd1 vccd1 vccd1 wbm_b_dat_o[30] sky130_fd_sc_hd__buf_2
Xoutput221 _146_/X vssd1 vssd1 vccd1 vccd1 wbm_b_dat_o[20] sky130_fd_sc_hd__buf_2
Xoutput210 _125_/X vssd1 vssd1 vccd1 vccd1 wbm_b_dat_o[10] sky130_fd_sc_hd__buf_2
Xoutput276 _179_/X vssd1 vssd1 vccd1 vccd1 wbs_dat_o[6] sky130_fd_sc_hd__buf_2
XFILLER_58_29 vssd1 vssd1 vccd1 vccd1 sky130_fd_sc_hd__decap_12
Xoutput254 _190_/X vssd1 vssd1 vccd1 vccd1 wbs_dat_o[15] sky130_fd_sc_hd__buf_2
Xoutput265 _200_/X vssd1 vssd1 vccd1 vccd1 wbs_dat_o[25] sky130_fd_sc_hd__buf_2
Xoutput243 _294_/X vssd1 vssd1 vccd1 vccd1 wbm_b_sel_o[2] sky130_fd_sc_hd__buf_2
XFILLER_130_23 vssd1 vssd1 vccd1 vccd1 sky130_fd_sc_hd__decap_4
XFILLER_90_27 vssd1 vssd1 vccd1 vccd1 sky130_fd_sc_hd__fill_1
XFILLER_23_43 vssd1 vssd1 vccd1 vccd1 sky130_fd_sc_hd__decap_12
X_130_ _247_/A _132_/B vssd1 vssd1 vccd1 vccd1 _131_/A sky130_fd_sc_hd__and2_1
XFILLER_99_69 vssd1 vssd1 vccd1 vccd1 sky130_fd_sc_hd__decap_12
XFILLER_0_69 vssd1 vssd1 vccd1 vccd1 sky130_fd_sc_hd__decap_12
XFILLER_80_93 vssd1 vssd1 vccd1 vccd1 sky130_fd_sc_hd__fill_2
X_328_ _328_/A vssd1 vssd1 vccd1 vccd1 _328_/X sky130_fd_sc_hd__clkbuf_1
X_259_ _259_/A _269_/B vssd1 vssd1 vccd1 vccd1 _260_/A sky130_fd_sc_hd__and2_1
XFILLER_43_3 vssd1 vssd1 vccd1 vccd1 sky130_fd_sc_hd__decap_4
XFILLER_100_15 vssd1 vssd1 vccd1 vccd1 sky130_fd_sc_hd__fill_1
XFILLER_133_101 vssd1 vssd1 vccd1 vccd1 sky130_fd_sc_hd__fill_2
XFILLER_109_57 vssd1 vssd1 vccd1 vccd1 sky130_fd_sc_hd__decap_12
XFILLER_109_35 vssd1 vssd1 vccd1 vccd1 sky130_fd_sc_hd__decap_12
XFILLER_125_23 vssd1 vssd1 vccd1 vccd1 sky130_fd_sc_hd__decap_12
XFILLER_18_65 vssd1 vssd1 vccd1 vccd1 sky130_fd_sc_hd__decap_12
XFILLER_34_53 vssd1 vssd1 vccd1 vccd1 sky130_fd_sc_hd__decap_12
XFILLER_34_97 vssd1 vssd1 vccd1 vccd1 sky130_fd_sc_hd__decap_6
X_113_ _113_/A vssd1 vssd1 vccd1 vccd1 _113_/X sky130_fd_sc_hd__clkbuf_2
XFILLER_50_41 vssd1 vssd1 vccd1 vccd1 sky130_fd_sc_hd__decap_12
XFILLER_50_85 vssd1 vssd1 vccd1 vccd1 sky130_fd_sc_hd__decap_8
XFILLER_91_81 vssd1 vssd1 vccd1 vccd1 sky130_fd_sc_hd__decap_12
XFILLER_75_93 vssd1 vssd1 vccd1 vccd1 sky130_fd_sc_hd__decap_3
XFILLER_111_69 vssd1 vssd1 vccd1 vccd1 sky130_fd_sc_hd__decap_12
XFILLER_136_77 vssd1 vssd1 vccd1 vccd1 sky130_fd_sc_hd__decap_6
XFILLER_136_11 vssd1 vssd1 vccd1 vccd1 sky130_fd_sc_hd__decap_4
XFILLER_96_26 vssd1 vssd1 vccd1 vccd1 sky130_fd_sc_hd__fill_2
XFILLER_20_22 vssd1 vssd1 vccd1 vccd1 sky130_fd_sc_hd__decap_6
XFILLER_20_44 vssd1 vssd1 vccd1 vccd1 sky130_fd_sc_hd__decap_12
XFILLER_20_99 vssd1 vssd1 vccd1 vccd1 sky130_fd_sc_hd__decap_4
XFILLER_136_99 vssd1 vssd1 vccd1 vccd1 sky130_fd_sc_hd__decap_4
XFILLER_29_53 vssd1 vssd1 vccd1 vccd1 sky130_fd_sc_hd__decap_3
XFILLER_6_13 vssd1 vssd1 vccd1 vccd1 sky130_fd_sc_hd__decap_4
XFILLER_61_62 vssd1 vssd1 vccd1 vccd1 sky130_fd_sc_hd__decap_12
XTAP_305 vssd1 vccd1 sky130_fd_sc_hd__tapvpwrvgnd_1
XTAP_316 vssd1 vccd1 sky130_fd_sc_hd__tapvpwrvgnd_1
XTAP_327 vssd1 vccd1 sky130_fd_sc_hd__tapvpwrvgnd_1
XTAP_338 vssd1 vccd1 sky130_fd_sc_hd__tapvpwrvgnd_1
XTAP_349 vssd1 vccd1 sky130_fd_sc_hd__tapvpwrvgnd_1
XFILLER_86_81 vssd1 vssd1 vccd1 vccd1 sky130_fd_sc_hd__decap_3
XFILLER_66_29 vssd1 vssd1 vccd1 vccd1 sky130_fd_sc_hd__decap_12
XFILLER_15_99 vssd1 vssd1 vccd1 vccd1 sky130_fd_sc_hd__decap_4
XFILLER_31_21 vssd1 vssd1 vccd1 vccd1 sky130_fd_sc_hd__decap_12
XFILLER_31_87 vssd1 vssd1 vccd1 vccd1 sky130_fd_sc_hd__fill_1
XFILLER_31_98 vssd1 vssd1 vccd1 vccd1 sky130_fd_sc_hd__decap_4
Xinput110 wbs_dat_i[19] vssd1 vssd1 vccd1 vccd1 _259_/A sky130_fd_sc_hd__clkbuf_2
Xinput132 wbs_sel_i[0] vssd1 vssd1 vccd1 vccd1 _289_/A sky130_fd_sc_hd__clkbuf_1
Xinput121 wbs_dat_i[29] vssd1 vssd1 vccd1 vccd1 _279_/A sky130_fd_sc_hd__clkbuf_2
XPHY_193 vssd1 vssd1 vccd1 vccd1 sky130_fd_sc_hd__decap_3
XPHY_182 vssd1 vssd1 vccd1 vccd1 sky130_fd_sc_hd__decap_3
XPHY_171 vssd1 vssd1 vccd1 vccd1 sky130_fd_sc_hd__decap_3
XFILLER_31_102 vssd1 vssd1 vccd1 vccd1 sky130_fd_sc_hd__fill_1
XPHY_160 vssd1 vssd1 vccd1 vccd1 sky130_fd_sc_hd__decap_3
XFILLER_117_57 vssd1 vssd1 vccd1 vccd1 sky130_fd_sc_hd__decap_12
XFILLER_117_13 vssd1 vssd1 vccd1 vccd1 sky130_fd_sc_hd__decap_4
XFILLER_93_38 vssd1 vssd1 vccd1 vccd1 sky130_fd_sc_hd__decap_12
XFILLER_93_16 vssd1 vssd1 vccd1 vccd1 sky130_fd_sc_hd__decap_4
XFILLER_26_32 vssd1 vssd1 vccd1 vccd1 sky130_fd_sc_hd__decap_12
X_292_ _292_/A vssd1 vssd1 vccd1 vccd1 _292_/X sky130_fd_sc_hd__buf_2
XFILLER_3_69 vssd1 vssd1 vccd1 vccd1 sky130_fd_sc_hd__decap_12
XFILLER_83_93 vssd1 vssd1 vccd1 vccd1 sky130_fd_sc_hd__fill_2
XFILLER_67_94 vssd1 vssd1 vccd1 vccd1 sky130_fd_sc_hd__fill_1
XFILLER_12_56 vssd1 vssd1 vccd1 vccd1 sky130_fd_sc_hd__decap_12
XFILLER_37_53 vssd1 vssd1 vccd1 vccd1 sky130_fd_sc_hd__decap_3
X_275_ _275_/A _283_/B vssd1 vssd1 vccd1 vccd1 _276_/A sky130_fd_sc_hd__and2_1
XFILLER_53_41 vssd1 vssd1 vccd1 vccd1 sky130_fd_sc_hd__decap_12
XFILLER_45_7 vssd1 vssd1 vccd1 vccd1 sky130_fd_sc_hd__decap_4
XFILLER_78_93 vssd1 vssd1 vccd1 vccd1 sky130_fd_sc_hd__fill_2
Xoutput200 _332_/X vssd1 vssd1 vccd1 vccd1 wbm_b_adr_o[2] sky130_fd_sc_hd__buf_2
Xoutput233 _168_/X vssd1 vssd1 vccd1 vccd1 wbm_b_dat_o[31] sky130_fd_sc_hd__buf_2
XFILLER_114_25 vssd1 vssd1 vccd1 vccd1 sky130_fd_sc_hd__decap_3
Xoutput222 _148_/X vssd1 vssd1 vccd1 vccd1 wbm_b_dat_o[21] sky130_fd_sc_hd__buf_2
Xoutput211 _127_/X vssd1 vssd1 vccd1 vccd1 wbm_b_dat_o[11] sky130_fd_sc_hd__buf_2
Xoutput244 _296_/X vssd1 vssd1 vccd1 vccd1 wbm_b_sel_o[3] sky130_fd_sc_hd__buf_2
XFILLER_58_19 vssd1 vssd1 vccd1 vccd1 sky130_fd_sc_hd__decap_8
Xoutput277 _180_/X vssd1 vssd1 vccd1 vccd1 wbs_dat_o[7] sky130_fd_sc_hd__buf_2
Xoutput255 _191_/X vssd1 vssd1 vccd1 vccd1 wbs_dat_o[16] sky130_fd_sc_hd__buf_2
Xoutput266 _201_/X vssd1 vssd1 vccd1 vccd1 wbs_dat_o[26] sky130_fd_sc_hd__buf_2
XFILLER_23_55 vssd1 vssd1 vccd1 vccd1 sky130_fd_sc_hd__fill_1
XFILLER_23_99 vssd1 vssd1 vccd1 vccd1 sky130_fd_sc_hd__decap_4
XFILLER_48_85 vssd1 vssd1 vccd1 vccd1 sky130_fd_sc_hd__decap_12
X_189_ _283_/B vssd1 vssd1 vccd1 vccd1 _189_/X sky130_fd_sc_hd__buf_4
XFILLER_9_57 vssd1 vssd1 vccd1 vccd1 sky130_fd_sc_hd__decap_12
X_327_ _327_/A vssd1 vssd1 vccd1 vccd1 _327_/X sky130_fd_sc_hd__clkbuf_1
X_258_ _258_/A vssd1 vssd1 vccd1 vccd1 _258_/X sky130_fd_sc_hd__clkbuf_1
XFILLER_80_83 vssd1 vssd1 vccd1 vccd1 sky130_fd_sc_hd__fill_1
XFILLER_89_81 vssd1 vssd1 vccd1 vccd1 sky130_fd_sc_hd__decap_12
XFILLER_100_27 vssd1 vssd1 vccd1 vccd1 sky130_fd_sc_hd__fill_1
XFILLER_109_69 vssd1 vssd1 vccd1 vccd1 sky130_fd_sc_hd__decap_12
XFILLER_109_47 vssd1 vssd1 vccd1 vccd1 sky130_fd_sc_hd__decap_8
XFILLER_125_57 vssd1 vssd1 vccd1 vccd1 sky130_fd_sc_hd__decap_12
XFILLER_125_35 vssd1 vssd1 vccd1 vccd1 sky130_fd_sc_hd__decap_12
XFILLER_18_99 vssd1 vssd1 vccd1 vccd1 sky130_fd_sc_hd__decap_4
XFILLER_18_77 vssd1 vssd1 vccd1 vccd1 sky130_fd_sc_hd__decap_6
X_112_ _228_/A _132_/B vssd1 vssd1 vccd1 vccd1 _113_/A sky130_fd_sc_hd__and2_1
XFILLER_34_65 vssd1 vssd1 vccd1 vccd1 sky130_fd_sc_hd__decap_12
XFILLER_50_53 vssd1 vssd1 vccd1 vccd1 sky130_fd_sc_hd__decap_12
XFILLER_22_9 vssd1 vssd1 vccd1 vccd1 sky130_fd_sc_hd__decap_4
XFILLER_91_93 vssd1 vssd1 vccd1 vccd1 sky130_fd_sc_hd__fill_2
XFILLER_1_91 vssd1 vssd1 vccd1 vccd1 sky130_fd_sc_hd__decap_4
XFILLER_136_23 vssd1 vssd1 vccd1 vccd1 sky130_fd_sc_hd__decap_4
XFILLER_20_56 vssd1 vssd1 vccd1 vccd1 sky130_fd_sc_hd__decap_12
XFILLER_101_81 vssd1 vssd1 vccd1 vccd1 sky130_fd_sc_hd__decap_8
XFILLER_61_74 vssd1 vssd1 vccd1 vccd1 sky130_fd_sc_hd__decap_12
XFILLER_20_6 vssd1 vssd1 vccd1 vccd1 sky130_fd_sc_hd__decap_8
XTAP_306 vssd1 vccd1 sky130_fd_sc_hd__tapvpwrvgnd_1
XTAP_317 vssd1 vccd1 sky130_fd_sc_hd__tapvpwrvgnd_1
XTAP_328 vssd1 vccd1 sky130_fd_sc_hd__tapvpwrvgnd_1
XTAP_339 vssd1 vccd1 sky130_fd_sc_hd__tapvpwrvgnd_1
XFILLER_86_93 vssd1 vssd1 vccd1 vccd1 sky130_fd_sc_hd__fill_2
XFILLER_106_15 vssd1 vssd1 vccd1 vccd1 sky130_fd_sc_hd__decap_4
XFILLER_31_33 vssd1 vssd1 vccd1 vccd1 sky130_fd_sc_hd__decap_12
XFILLER_103_3 vssd1 vssd1 vccd1 vccd1 sky130_fd_sc_hd__decap_4
Xinput133 wbs_sel_i[1] vssd1 vssd1 vccd1 vccd1 _291_/A sky130_fd_sc_hd__clkbuf_1
Xinput111 wbs_dat_i[1] vssd1 vssd1 vccd1 vccd1 _222_/A sky130_fd_sc_hd__clkbuf_1
Xinput122 wbs_dat_i[2] vssd1 vssd1 vccd1 vccd1 _224_/A sky130_fd_sc_hd__clkbuf_1
Xinput100 wbs_dat_i[0] vssd1 vssd1 vccd1 vccd1 _220_/A sky130_fd_sc_hd__clkbuf_1
XFILLER_56_41 vssd1 vssd1 vccd1 vccd1 sky130_fd_sc_hd__decap_12
XFILLER_56_85 vssd1 vssd1 vccd1 vccd1 sky130_fd_sc_hd__decap_8
XPHY_194 vssd1 vssd1 vccd1 vccd1 sky130_fd_sc_hd__decap_3
XPHY_183 vssd1 vssd1 vccd1 vccd1 sky130_fd_sc_hd__decap_3
XPHY_172 vssd1 vssd1 vccd1 vccd1 sky130_fd_sc_hd__decap_3
XPHY_161 vssd1 vssd1 vccd1 vccd1 sky130_fd_sc_hd__decap_3
XPHY_150 vssd1 vssd1 vccd1 vccd1 sky130_fd_sc_hd__decap_3
XFILLER_97_81 vssd1 vssd1 vccd1 vccd1 sky130_fd_sc_hd__decap_8
XFILLER_117_69 vssd1 vssd1 vccd1 vccd1 sky130_fd_sc_hd__decap_12
XFILLER_117_25 vssd1 vssd1 vccd1 vccd1 sky130_fd_sc_hd__decap_12
XFILLER_133_57 vssd1 vssd1 vccd1 vccd1 sky130_fd_sc_hd__decap_12
XFILLER_26_22 vssd1 vssd1 vccd1 vccd1 sky130_fd_sc_hd__decap_6
XFILLER_26_44 vssd1 vssd1 vccd1 vccd1 sky130_fd_sc_hd__decap_12
X_291_ _291_/A _295_/B vssd1 vssd1 vccd1 vccd1 _292_/A sky130_fd_sc_hd__and2_1
XFILLER_26_99 vssd1 vssd1 vccd1 vccd1 sky130_fd_sc_hd__decap_4
XFILLER_3_15 vssd1 vssd1 vccd1 vccd1 sky130_fd_sc_hd__fill_1
XFILLER_67_62 vssd1 vssd1 vccd1 vccd1 sky130_fd_sc_hd__decap_12
XFILLER_83_50 vssd1 vssd1 vccd1 vccd1 sky130_fd_sc_hd__decap_6
XFILLER_66_3 vssd1 vssd1 vccd1 vccd1 sky130_fd_sc_hd__fill_1
XFILLER_103_16 vssd1 vssd1 vccd1 vccd1 sky130_fd_sc_hd__decap_12
XFILLER_12_68 vssd1 vssd1 vccd1 vccd1 sky130_fd_sc_hd__decap_12
XFILLER_12_24 vssd1 vssd1 vccd1 vccd1 sky130_fd_sc_hd__decap_4
XFILLER_12_13 vssd1 vssd1 vccd1 vccd1 sky130_fd_sc_hd__decap_8
XFILLER_37_21 vssd1 vssd1 vccd1 vccd1 sky130_fd_sc_hd__decap_4
XFILLER_53_53 vssd1 vssd1 vccd1 vccd1 sky130_fd_sc_hd__decap_3
X_274_ _274_/A vssd1 vssd1 vccd1 vccd1 _274_/X sky130_fd_sc_hd__clkbuf_1
XFILLER_78_83 vssd1 vssd1 vccd1 vccd1 sky130_fd_sc_hd__fill_1
XFILLER_94_93 vssd1 vssd1 vccd1 vccd1 sky130_fd_sc_hd__fill_2
Xoutput223 _150_/X vssd1 vssd1 vccd1 vccd1 wbm_b_dat_o[22] sky130_fd_sc_hd__buf_2
Xoutput212 _129_/X vssd1 vssd1 vccd1 vccd1 wbm_b_dat_o[12] sky130_fd_sc_hd__buf_2
Xoutput234 _111_/X vssd1 vssd1 vccd1 vccd1 wbm_b_dat_o[3] sky130_fd_sc_hd__buf_2
Xoutput201 _333_/X vssd1 vssd1 vccd1 vccd1 wbm_b_adr_o[3] sky130_fd_sc_hd__buf_2
Xoutput278 _181_/X vssd1 vssd1 vccd1 vccd1 wbs_dat_o[8] sky130_fd_sc_hd__buf_2
Xoutput256 _192_/X vssd1 vssd1 vccd1 vccd1 wbs_dat_o[17] sky130_fd_sc_hd__buf_2
Xoutput267 _202_/X vssd1 vssd1 vccd1 vccd1 wbs_dat_o[27] sky130_fd_sc_hd__buf_2
Xoutput245 _286_/X vssd1 vssd1 vccd1 vccd1 wbm_b_stb_o sky130_fd_sc_hd__buf_2
XFILLER_135_6 vssd1 vssd1 vccd1 vccd1 sky130_fd_sc_hd__decap_6
XFILLER_90_29 vssd1 vssd1 vccd1 vccd1 sky130_fd_sc_hd__decap_12
XFILLER_23_12 vssd1 vssd1 vccd1 vccd1 sky130_fd_sc_hd__decap_4
XFILLER_48_97 vssd1 vssd1 vccd1 vccd1 sky130_fd_sc_hd__decap_6
XFILLER_9_69 vssd1 vssd1 vccd1 vccd1 sky130_fd_sc_hd__decap_12
XFILLER_9_14 vssd1 vssd1 vccd1 vccd1 sky130_fd_sc_hd__decap_4
X_326_ _326_/A vssd1 vssd1 vccd1 vccd1 _326_/X sky130_fd_sc_hd__clkbuf_1
XFILLER_64_85 vssd1 vssd1 vccd1 vccd1 sky130_fd_sc_hd__decap_8
X_188_ _295_/B vssd1 vssd1 vccd1 vccd1 _188_/X sky130_fd_sc_hd__buf_4
X_257_ _257_/A _269_/B vssd1 vssd1 vccd1 vccd1 _258_/A sky130_fd_sc_hd__and2_1
XFILLER_89_93 vssd1 vssd1 vccd1 vccd1 sky130_fd_sc_hd__decap_3
XFILLER_29_3 vssd1 vssd1 vccd1 vccd1 sky130_fd_sc_hd__decap_3
XFILLER_125_69 vssd1 vssd1 vccd1 vccd1 sky130_fd_sc_hd__decap_12
XFILLER_125_47 vssd1 vssd1 vccd1 vccd1 sky130_fd_sc_hd__decap_8
XFILLER_34_22 vssd1 vssd1 vccd1 vccd1 sky130_fd_sc_hd__decap_6
XFILLER_34_77 vssd1 vssd1 vccd1 vccd1 sky130_fd_sc_hd__decap_6
X_111_ _111_/A vssd1 vssd1 vccd1 vccd1 _111_/X sky130_fd_sc_hd__clkbuf_2
XFILLER_50_65 vssd1 vssd1 vccd1 vccd1 sky130_fd_sc_hd__decap_12
X_309_ _330_/A vssd1 vssd1 vccd1 vccd1 _309_/X sky130_fd_sc_hd__clkbuf_1
XFILLER_1_81 vssd1 vssd1 vccd1 vccd1 sky130_fd_sc_hd__decap_6
XFILLER_105_7 vssd1 vssd1 vccd1 vccd1 sky130_fd_sc_hd__decap_12
XFILLER_20_68 vssd1 vssd1 vccd1 vccd1 sky130_fd_sc_hd__decap_12
XFILLER_29_11 vssd1 vssd1 vccd1 vccd1 sky130_fd_sc_hd__decap_4
XFILLER_29_22 vssd1 vssd1 vccd1 vccd1 sky130_fd_sc_hd__decap_4
XFILLER_29_99 vssd1 vssd1 vccd1 vccd1 sky130_fd_sc_hd__decap_4
XFILLER_61_42 vssd1 vssd1 vccd1 vccd1 sky130_fd_sc_hd__fill_1
XFILLER_61_86 vssd1 vssd1 vccd1 vccd1 sky130_fd_sc_hd__decap_12
XTAP_307 vssd1 vccd1 sky130_fd_sc_hd__tapvpwrvgnd_1
XTAP_318 vssd1 vccd1 sky130_fd_sc_hd__tapvpwrvgnd_1
XTAP_329 vssd1 vccd1 sky130_fd_sc_hd__tapvpwrvgnd_1
XFILLER_122_26 vssd1 vssd1 vccd1 vccd1 sky130_fd_sc_hd__fill_2
XFILLER_82_19 vssd1 vssd1 vccd1 vccd1 sky130_fd_sc_hd__decap_8
XFILLER_15_57 vssd1 vssd1 vccd1 vccd1 sky130_fd_sc_hd__decap_12
XFILLER_15_13 vssd1 vssd1 vccd1 vccd1 sky130_fd_sc_hd__decap_4
XFILLER_31_45 vssd1 vssd1 vccd1 vccd1 sky130_fd_sc_hd__decap_8
Xinput134 wbs_sel_i[2] vssd1 vssd1 vccd1 vccd1 _293_/A sky130_fd_sc_hd__clkbuf_1
Xinput101 wbs_dat_i[10] vssd1 vssd1 vccd1 vccd1 _241_/A sky130_fd_sc_hd__dlymetal6s2s_1
Xinput112 wbs_dat_i[20] vssd1 vssd1 vccd1 vccd1 _261_/A sky130_fd_sc_hd__clkbuf_2
Xinput123 wbs_dat_i[30] vssd1 vssd1 vccd1 vccd1 _281_/A sky130_fd_sc_hd__clkbuf_2
XFILLER_112_81 vssd1 vssd1 vccd1 vccd1 sky130_fd_sc_hd__decap_3
XFILLER_56_53 vssd1 vssd1 vccd1 vccd1 sky130_fd_sc_hd__decap_12
XPHY_195 vssd1 vssd1 vccd1 vccd1 sky130_fd_sc_hd__decap_3
XPHY_184 vssd1 vssd1 vccd1 vccd1 sky130_fd_sc_hd__decap_3
XPHY_173 vssd1 vssd1 vccd1 vccd1 sky130_fd_sc_hd__decap_3
XPHY_162 vssd1 vssd1 vccd1 vccd1 sky130_fd_sc_hd__decap_3
XFILLER_68_7 vssd1 vssd1 vccd1 vccd1 sky130_fd_sc_hd__decap_8
XPHY_140 vssd1 vssd1 vccd1 vccd1 sky130_fd_sc_hd__decap_3
XFILLER_72_85 vssd1 vssd1 vccd1 vccd1 sky130_fd_sc_hd__decap_8
XPHY_151 vssd1 vssd1 vccd1 vccd1 sky130_fd_sc_hd__decap_3
XFILLER_117_37 vssd1 vssd1 vccd1 vccd1 sky130_fd_sc_hd__decap_12
XFILLER_133_69 vssd1 vssd1 vccd1 vccd1 sky130_fd_sc_hd__decap_12
XFILLER_26_56 vssd1 vssd1 vccd1 vccd1 sky130_fd_sc_hd__decap_12
X_290_ _290_/A vssd1 vssd1 vccd1 vccd1 _290_/X sky130_fd_sc_hd__buf_2
XFILLER_42_11 vssd1 vssd1 vccd1 vccd1 sky130_fd_sc_hd__decap_4
XFILLER_42_33 vssd1 vssd1 vccd1 vccd1 sky130_fd_sc_hd__decap_12
XFILLER_42_99 vssd1 vssd1 vccd1 vccd1 sky130_fd_sc_hd__decap_4
XFILLER_107_81 vssd1 vssd1 vccd1 vccd1 sky130_fd_sc_hd__decap_12
XFILLER_67_30 vssd1 vssd1 vccd1 vccd1 sky130_fd_sc_hd__decap_12
XFILLER_67_74 vssd1 vssd1 vccd1 vccd1 sky130_fd_sc_hd__decap_12
XFILLER_103_28 vssd1 vssd1 vccd1 vccd1 sky130_fd_sc_hd__decap_12
XFILLER_88_29 vssd1 vssd1 vccd1 vccd1 sky130_fd_sc_hd__decap_12
XFILLER_88_18 vssd1 vssd1 vccd1 vccd1 sky130_fd_sc_hd__decap_8
XFILLER_37_11 vssd1 vssd1 vccd1 vccd1 sky130_fd_sc_hd__decap_4
XFILLER_37_99 vssd1 vssd1 vccd1 vccd1 sky130_fd_sc_hd__decap_4
XFILLER_53_21 vssd1 vssd1 vccd1 vccd1 sky130_fd_sc_hd__decap_4
X_273_ _273_/A _283_/B vssd1 vssd1 vccd1 vccd1 _274_/A sky130_fd_sc_hd__and2_1
XFILLER_94_83 vssd1 vssd1 vccd1 vccd1 sky130_fd_sc_hd__fill_1
Xoutput224 _152_/X vssd1 vssd1 vccd1 vccd1 wbm_b_dat_o[23] sky130_fd_sc_hd__buf_2
Xoutput213 _131_/X vssd1 vssd1 vccd1 vccd1 wbm_b_dat_o[13] sky130_fd_sc_hd__buf_2
Xoutput235 _113_/X vssd1 vssd1 vccd1 vccd1 wbm_b_dat_o[4] sky130_fd_sc_hd__buf_2
Xoutput202 _334_/X vssd1 vssd1 vccd1 vccd1 wbm_b_adr_o[4] sky130_fd_sc_hd__buf_2
Xoutput257 _193_/X vssd1 vssd1 vccd1 vccd1 wbs_dat_o[18] sky130_fd_sc_hd__buf_2
Xoutput268 _203_/X vssd1 vssd1 vccd1 vccd1 wbs_dat_o[28] sky130_fd_sc_hd__buf_2
Xoutput246 _288_/X vssd1 vssd1 vccd1 vccd1 wbm_b_we_o sky130_fd_sc_hd__buf_2
Xoutput279 _182_/X vssd1 vssd1 vccd1 vccd1 wbs_dat_o[9] sky130_fd_sc_hd__buf_2
XFILLER_90_19 vssd1 vssd1 vccd1 vccd1 sky130_fd_sc_hd__decap_8
XFILLER_128_6 vssd1 vssd1 vccd1 vccd1 sky130_fd_sc_hd__decap_4
XFILLER_23_57 vssd1 vssd1 vccd1 vccd1 sky130_fd_sc_hd__decap_12
XFILLER_48_10 vssd1 vssd1 vccd1 vccd1 sky130_fd_sc_hd__decap_4
XFILLER_48_32 vssd1 vssd1 vccd1 vccd1 sky130_fd_sc_hd__decap_12
XFILLER_104_93 vssd1 vssd1 vccd1 vccd1 sky130_fd_sc_hd__decap_3
XFILLER_0_39 vssd1 vssd1 vccd1 vccd1 sky130_fd_sc_hd__decap_12
XFILLER_9_37 vssd1 vssd1 vccd1 vccd1 sky130_fd_sc_hd__decap_12